CM Dipole
CE Start of geometry
GW 1 181 0 0 -0.0375 0 0 0.0375 0.0025
GE
GN -1
PT -1
EK
EX 0 1 91 0 1 0
FR 0 1 0 0 2000
RP 0 1 360 1510 90 0 1 1 0 0 
RP 0 360 1 1510 0 90 1 1 0 0 
RP 0 360 1 1510 0 0 1 1 0 0 
XQ
EN